
  Mrv1591409291514433D          

  0  0  0     0  0            999 V3000
M  V30 BEGIN CTAB
M  V30 COUNTS 308 311 0 0 1
M  V30 BEGIN ATOM
M  V30 1 C 0.9938 0.0413 -0.0945 0
M  V30 2 S 2.7935 -0.1701 -0.197 0
M  V30 3 C 3.3164 1.5583 -0.0886 0 CFG=1
M  V30 4 C 4.8447 1.6681 -0.0745 0 CFG=1
M  V30 5 C 5.3686 3.1071 -0.0298 0 CFG=1
M  V30 6 C 4.9395 3.7188 1.3071 0
M  V30 7 O 5.7333 3.9627 2.2135 0
M  V30 8 N 3.5917 3.9793 1.433 0
M  V30 9 C 3.0531 4.5614 2.6542 0 CFG=1
M  V30 10 C 3.5302 6.0246 2.4704 0
M  V30 11 O 2.8471 6.8914 1.9244 0
M  V30 12 N 4.8348 6.2814 2.8258 0
M  V30 13 C 5.4145 7.6146 2.778 0 CFG=1
M  V30 14 C 4.9785 8.2253 4.1073 0
M  V30 15 O 5.7213 8.347 5.0806 0
M  V30 16 N 3.668 8.617 4.1589 0
M  V30 17 C 3.0635 9.1114 5.3989 0 CFG=1
M  V30 18 C 3.5196 10.5437 5.3225 0
M  V30 19 O 2.7479 11.4713 5.068 0
M  V30 20 N 4.8592 10.7472 5.5128 0
M  V30 21 C 5.4139 12.0697 5.4901 0 CFG=1
M  V30 22 C 4.9586 12.6017 6.8307 0
M  V30 23 O 5.7294 12.7844 7.7736 0
M  V30 24 N 3.6182 12.865 6.934 0
M  V30 25 C 3.0703 13.4379 8.1179 0 CFG=1
M  V30 26 C 3.5076 14.8878 7.9816 0
M  V30 27 O 2.7109 15.8025 7.7644 0
M  V30 28 N 4.8638 15.0863 8.1015 0
M  V30 29 C 5.4651 16.3769 8.1669 0 CFG=1
M  V30 30 C 5.0317 16.7893 9.5333 0
M  V30 31 O 5.6689 16.7442 10.5852 0
M  V30 32 N 3.8031 17.3081 9.4566 0
M  V30 33 C 3.3389 17.9418 10.5832 0 CFG=1
M  V30 34 C 3.8366 19.3776 10.4161 0
M  V30 35 O 3.2359 20.2339 9.7697 0
M  V30 36 N 4.9882 19.6607 11.0963 0
M  V30 37 C 5.4836 21.0265 11.0695 0 CFG=1
M  V30 38 C 5.0152 21.7836 12.3198 0
M  V30 39 O 5.76 22.0465 13.2627 0
M  V30 40 N 3.6974 22.1352 12.3461 0
M  V30 41 C 3.0733 22.5521 13.5867 0 CFG=1
M  V30 42 C 1.5454 22.6821 13.5093 0
M  V30 43 O 0.8892 22.5857 12.4737 0
M  V30 44 N 0.9027 22.8692 14.7041 0
M  V30 45 C -0.5572 22.9044 14.7283 0 CFG=1
M  V30 46 C -1.0546 21.457 14.8522 0
M  V30 47 O -1.5237 21.0107 15.9055 0
M  V30 48 N -0.9922 20.6359 13.7624 0
M  V30 49 C -1.5857 19.2837 13.8981 0 CFG=1
M  V30 50 C -3.0086 19.5278 13.5474 0
M  V30 51 O -3.5422 19.3721 12.5066 0
M  V30 52 N -3.6111 19.9205 14.7058 0
M  V30 53 C -5.0038 19.9632 14.6828 0 CFG=1
M  V30 54 C -5.3591 18.4921 14.7363 0
M  V30 55 O -5.7971 17.9383 15.7501 0
M  V30 56 N -5.1766 17.7898 13.5806 0
M  V30 57 C -5.6341 16.4584 13.5693 0 CFG=1
M  V30 58 C -7.1124 16.5698 13.355 0
M  V30 59 O -7.6898 16.4997 12.2786 0
M  V30 60 N -7.758 16.793 14.5254 0
M  V30 61 C -9.1737 16.6864 14.5365 0 CFG=1
M  V30 62 C -9.4549 15.2005 14.5524 0
M  V30 63 O -9.6157 14.5547 15.5859 0
M  V30 64 N -9.5226 14.6196 13.3269 0
M  V30 65 C -9.9711 13.2594 13.2687 0 CFG=1
M  V30 66 C -9.8132 12.7341 11.8488 0
M  V30 67 O -9.5007 13.4469 10.8937 0
M  V30 68 N -9.7676 11.3557 11.7653 0
M  V30 69 C -9.229 10.6909 10.5658 0 CFG=1
M  V30 70 C -7.6595 10.6016 10.3952 0
M  V30 71 O -7.0246 9.5945 10.7257 0
M  V30 72 N -6.9831 11.7371 9.9389 0
M  V30 73 C -5.5114 11.8215 10.0515 0 CFG=1
M  V30 74 C -5.0894 11.1541 8.8227 0
M  V30 75 O -4.7378 11.7212 7.7902 0
M  V30 76 N -5.004 9.8129 9.0089 0
M  V30 77 C -4.5511 9.0752 7.8897 0 CFG=1
M  V30 78 C -3.0301 9.1115 7.9091 0
M  V30 79 O -2.3217 8.1291 8.0646 0
M  V30 80 O -2.498 10.3349 7.7155 0
M  V30 81 C -5.0222 7.6532 7.9395 0 CFG=1
M  V30 82 C -6.4957 7.6655 8.0119 0
M  V30 83 C -4.7037 6.985 6.6161 0
M  V30 84 C -4.8412 13.1849 10.073 0 CFG=1
M  V30 85 C -3.3526 13.2442 10.4435 0 CFG=1
M  V30 86 C -2.576 12.5493 9.4048 0
M  V30 87 C -2.9067 14.6623 10.5716 0
M  V30 88 C -9.7348 9.2481 10.5689 0 CFG=1
M  V30 89 C -9.5164 8.5681 9.2661 0
M  V30 90 C -9.0724 9.1557 8.0965 0
M  V30 91 N -9.0717 8.199 7.1178 0
M  V30 92 C -9.2766 6.9573 7.6849 0
M  V30 93 C -9.5934 7.1649 9.0271 0
M  V30 94 C -9.8343 6.0474 9.8464 0
M  V30 95 C -9.7749 4.7691 9.2838 0
M  V30 96 C -9.3676 4.589 7.9636 0
M  V30 97 C -9.0718 5.6807 7.147 0
M  V30 98 C -9.7111 17.2681 15.8079 0 CFG=1
M  V30 99 C -11.2151 17.5098 15.7887 0 CFG=1
M  V30 100 C -11.9315 16.1755 15.7295 0
M  V30 101 C -11.6602 18.2393 17.05 0
M  V30 102 C -5.085 15.6666 12.4732 0 CFG=1
M  V30 103 C -5.4668 14.2711 12.8328 0
M  V30 104 C -4.5689 13.3161 13.331 0
M  V30 105 C -4.8868 11.9597 13.2747 0
M  V30 106 C -6.1672 11.5807 12.9948 0
M  V30 107 C -7.0231 12.5628 12.5701 0
M  V30 108 C -6.6933 13.8676 12.3742 0
M  V30 109 C -5.4039 20.6582 15.9441 0 CFG=1
M  V30 110 C -6.8403 20.854 15.96 0
M  V30 111 N -7.7302 19.8312 15.9847 0
M  V30 112 C -8.9588 20.4034 15.864 0
M  V30 113 N -8.906 21.7053 15.8213 0
M  V30 114 C -7.5868 21.9904 15.8678 0
M  V30 115 C -1.2002 18.1851 12.9845 0 CFG=1
M  V30 116 C 0.1638 17.8715 13.4798 0
M  V30 117 C -1.7157 16.8381 12.605 0
M  V30 118 C -1.0952 23.6549 15.9539 0 CFG=1
M  V30 119 C -0.5765 25.082 15.9906 0
M  V30 120 C -2.632 23.6763 15.95 0
M  V30 121 C 6.9864 21.1095 11.0859 0
M  V30 122 C 1.8962 17.9251 10.3994 0 CFG=1
M  V30 123 C 1.4202 18.81 11.4587 0 CFG=1
M  V30 124 C 1.8896 20.0805 12.0602 0
M  V30 125 C 0.0698 19.0777 10.9002 0
M  V30 126 C 6.9743 16.3807 8.1359 0 CFG=1
M  V30 127 C 7.5341 17.7983 8.1032 0 CFG=1
M  V30 128 C 7.1222 18.6308 9.2694 0
M  V30 129 C 9.0468 17.8168 8.1511 0
M  V30 130 C 1.5677 13.4035 8.1248 0 CFG=1
M  V30 131 C 1.176 14.0773 9.387 0
M  V30 132 O 1.8977 14.3748 10.3287 0
M  V30 133 N -0.1097 14.4 9.4473 0
M  V30 134 C 6.9446 12.0847 5.4642 0 CFG=1
M  V30 135 O 7.4648 11.5106 4.2745 0
M  V30 136 C 7.4804 13.5024 5.4885 0
M  V30 137 C 1.5113 9.1332 5.4836 0 CFG=1
M  V30 138 C 0.9053 7.7574 5.4238 0 CFG=1
M  V30 139 C 1.2781 7.2781 4.0793 0
M  V30 140 C 0.9765 9.755 6.7587 0
M  V30 141 C 6.9484 7.6207 2.7308 0 CFG=1
M  V30 142 C 7.4685 6.9483 1.4933 0
M  V30 143 C 7.4832 9.0387 2.7343 0
M  V30 144 C 1.5165 4.3797 2.6852 0 CFG=1
M  V30 145 C 0.9586 4.5317 4.0924 0
M  V30 146 O 1.6703 4.6005 5.0883 0
M  V30 147 N -0.4003 4.7725 4.1769 0
M  V30 148 N 6.8284 3.1097 -0.1181 0
M  V30 149 C 7.5689 4.2533 -0.1526 0
M  V30 150 O 8.7837 4.2873 -0.0342 0
M  V30 151 H 0.6912 0.0768 0.952 0
M  V30 152 H 0.7085 0.9709 -0.587 0
M  V30 153 H 0.5009 -0.7969 -0.587 0
M  V30 154 H 3.0337 2.0784 -1.0039 0
M  V30 155 H 3.0246 1.963 0.8805 0
M  V30 156 H 5.1664 1.2065 0.8591 0
M  V30 157 H 5.18 1.2602 -1.0281 0
M  V30 158 H 5.011 3.689 -0.8793 0
M  V30 159 H 3.0076 3.7472 0.6424 0
M  V30 160 H 3.402 4.093 3.5745 0
M  V30 161 H 5.3736 5.4814 3.1255 0
M  V30 162 H 5.0608 8.1036 1.8703 0
M  V30 163 H 3.1536 8.5422 3.293 0
M  V30 164 H 3.3908 8.4724 6.219 0
M  V30 165 H 5.4323 9.9302 5.6683 0
M  V30 166 H 5.066 12.5879 4.5965 0
M  V30 167 H 3.0362 12.6376 6.1405 0
M  V30 168 H 3.4134 12.8792 8.9887 0
M  V30 169 H 5.4376 14.2562 8.1429 0
M  V30 170 H 5.1445 16.9677 7.3088 0
M  V30 171 H 3.2633 17.227 8.6068 0
M  V30 172 H 3.6399 17.4501 11.5082 0
M  V30 173 H 5.4453 18.9066 11.5887 0
M  V30 174 H 5.0911 21.4094 10.1275 0
M  V30 175 H 3.1969 22.0881 11.4701 0
M  V30 176 H 3.2867 21.7449 14.2875 0
M  V30 177 H 3.4666 23.5519 13.7707 0
M  V30 178 H 1.4776 22.9761 15.5276 0
M  V30 179 H -0.8515 23.4119 13.8096 0
M  V30 180 H -0.547 20.9964 12.9306 0
M  V30 181 H -1.2737 18.9339 14.8822 0
M  V30 182 H -3.0659 20.162 15.521 0
M  V30 183 H -5.4141 20.4904 13.8215 0
M  V30 184 H -4.7321 18.2267 12.7858 0
M  V30 185 H -5.2976 15.9939 14.4962 0
M  V30 186 H -7.2142 17.0259 15.344 0
M  V30 187 H -9.5757 17.2234 13.6773 0
M  V30 188 H -9.2581 15.1608 12.5162 0
M  V30 189 H -9.2925 12.6967 13.9097 0
M  V30 190 H -11.0366 13.2895 13.4964 0
M  V30 191 H -10.1199 10.8458 12.5628 0
M  V30 192 H -9.6246 11.3444 9.7883 0
M  V30 193 H -7.5426 12.4766 9.5387 0
M  V30 194 H -5.2363 11.3781 11.0085 0
M  V30 195 H -5.2541 9.4023 9.8971 0
M  V30 196 H -4.991 9.5526 7.0141 0
M  V30 197 H -2.3199 10.7445 8.5653 0
M  V30 198 H -4.5724 7.1493 8.795 0
M  V30 199 H -6.8082 7.6681 9.0562 0
M  V30 200 H -6.8764 8.5587 7.5165 0
M  V30 201 H -6.8912 6.7788 7.5165 0
M  V30 202 H -4.7333 5.9024 6.7393 0
M  V30 203 H -5.4397 7.2861 5.8706 0
M  V30 204 H -3.7091 7.2861 6.2871 0
M  V30 205 H -4.8933 13.5362 9.0425 0
M  V30 206 H -5.3542 13.734 10.8626 0
M  V30 207 H -3.1549 12.751 11.3952 0
M  V30 208 H -1.8436 11.8939 9.8762 0
M  V30 209 H -3.248 11.9564 8.7844 0
M  V30 210 H -2.0611 13.2828 8.7844 0
M  V30 211 H -2.8246 14.9235 11.6267 0
M  V30 212 H -1.9359 14.7828 10.0909 0
M  V30 213 H -3.6339 15.3167 10.0909 0
M  V30 214 H -9.1242 8.7042 11.2896 0
M  V30 215 H -10.8162 9.2961 10.6971 0
M  V30 216 H -8.7738 10.1961 7.9679 0
M  V30 217 H -8.9407 8.3806 6.1329 0
M  V30 218 H -10.0643 6.1705 10.9047 0
M  V30 219 H -10.0499 3.9009 9.8827 0
M  V30 220 H -9.279 3.5789 7.5636 0
M  V30 221 H -8.697 5.5423 6.1329 0
M  V30 222 H -9.5355 16.5107 16.5718 0
M  V30 223 H -9.2473 18.2504 15.8976 0
M  V30 224 H -11.4599 18.1149 14.9157 0
M  V30 225 H -12.1222 15.8203 16.7422 0
M  V30 226 H -12.8779 16.2943 15.2019 0
M  V30 227 H -11.3096 15.4523 15.2019 0
M  V30 228 H -11.9301 17.5111 17.8148 0
M  V30 229 H -10.8452 18.8644 17.415 0
M  V30 230 H -12.5237 18.8644 16.8226 0
M  V30 231 H -5.6167 15.9449 11.5633 0
M  V30 232 H -3.9989 15.7478 12.5162 0
M  V30 233 H -3.6191 13.6297 13.7642 0
M  V30 234 H -4.132 11.1932 13.4501 0
M  V30 235 H -6.4901 10.5455 13.1049 0
M  V30 236 H -8.0571 12.2814 12.3706 0
M  V30 237 H -7.3768 14.5546 11.8753 0
M  V30 238 H -5.1799 19.9833 16.7702 0
M  V30 239 H -4.9616 21.6541 15.9188 0
M  V30 240 H -7.5212 18.8471 16.0744 0
M  V30 241 H -9.9047 19.8648 15.8064 0
M  V30 242 H -7.1797 23.001 15.8353 0
M  V30 243 H -1.6004 18.6709 12.0946 0
M  V30 244 H 0.1635 17.8716 14.5698 0
M  V30 245 H 0.4653 16.889 13.1166 0
M  V30 246 H 0.8641 18.6237 13.1166 0
M  V30 247 H -1.9348 16.2657 13.5064 0
M  V30 248 H -2.6257 16.9502 12.0156 0
M  V30 249 H -0.9634 16.314 12.0156 0
M  V30 250 H -0.7375 23.1349 16.8426 0
M  V30 251 H -0.4609 25.4 17.0267 0
M  V30 252 H 0.3883 25.131 15.4857 0
M  V30 253 H -1.2846 25.7391 15.4857 0
M  V30 254 H -2.9979 23.6814 16.9767 0
M  V30 255 H -2.9816 24.5712 15.4352 0
M  V30 256 H -3.0064 22.7914 15.4352 0
M  V30 257 H 7.338 21.1289 12.1175 0
M  V30 258 H 7.4038 20.2412 10.5761 0
M  V30 259 H 7.3057 22.0185 10.5761 0
M  V30 260 H 1.672 18.3914 9.44 0
M  V30 261 H 1.5397 16.9172 10.6121 0
M  V30 262 H 1.7666 18.2512 12.3281 0
M  V30 263 H 1.8601 20.0007 13.1469 0
M  V30 264 H 2.9118 20.2792 11.7381 0
M  V30 265 H 1.2421 20.896 11.7381 0
M  V30 266 H -0.6394 19.2183 11.7159 0
M  V30 267 H 0.1021 19.9786 10.2875 0
M  V30 268 H -0.244 18.2326 10.2875 0
M  V30 269 H 7.2975 15.9424 9.0801 0
M  V30 270 H 7.2588 15.9141 7.1928 0
M  V30 271 H 7.1336 18.2177 7.1803 0
M  V30 272 H 6.8307 17.9812 10.0947 0
M  V30 273 H 7.9565 19.2599 9.5795 0
M  V30 274 H 6.2782 19.2599 8.9867 0
M  V30 275 H 9.3774 17.8208 9.1897 0
M  V30 276 H 9.4371 16.9315 7.649 0
M  V30 277 H 9.4153 18.7114 7.649 0
M  V30 278 H 1.2139 14.0212 7.2993 0
M  V30 279 H 1.2561 12.3616 8.1984 0
M  V30 280 H -0.3861 15.3712 9.4702 0
M  V30 281 H -0.8119 13.6744 9.4702 0
M  V30 282 H 7.2926 11.4772 6.2996 0
M  V30 283 H 7.4354 10.5534 4.3417 0
M  V30 284 H 7.603 13.8268 6.5219 0
M  V30 285 H 8.4443 13.5353 4.9806 0
M  V30 286 H 6.7792 14.1646 4.9806 0
M  V30 287 H 1.1981 9.7239 4.6228 0
M  V30 288 H 1.4126 7.127 6.154 0
M  V30 289 H -0.1796 7.8588 5.4516 0
M  V30 290 H 1.2807 6.1881 4.0699 0
M  V30 291 H 0.5569 7.646 3.3495 0
M  V30 292 H 2.2721 7.646 3.8251 0
M  V30 293 H 0.6853 8.9668 7.453 0
M  V30 294 H 1.7506 10.3726 7.2142 0
M  V30 295 H 0.1091 10.3726 6.5257 0
M  V30 296 H 7.3016 7.0754 3.606 0
M  V30 297 H 7.416 5.8667 1.6181 0
M  V30 298 H 6.8631 7.245 0.6368 0
M  V30 299 H 8.504 7.245 1.3265 0
M  V30 300 H 7.6106 9.3764 3.7628 0
M  V30 301 H 8.4446 9.0657 2.2213 0
M  V30 302 H 6.7791 9.6938 2.2213 0
M  V30 303 H 1.0942 5.2001 2.1049 0
M  V30 304 H 1.3191 3.348 2.3941 0
M  V30 305 H -0.744 5.7217 4.2078 0
M  V30 306 H -1.0492 3.9992 4.2078 0
M  V30 307 H 7.3666 2.256 -0.1584 0
M  V30 308 H 7.1439 5.2476 -0.2896 0
M  V30 END ATOM
M  V30 BEGIN BOND
M  V30 1 1 1 2
M  V30 2 1 2 3
M  V30 3 1 3 4
M  V30 4 1 4 5
M  V30 5 1 5 6
M  V30 6 1 5 148
M  V30 7 2 6 7
M  V30 8 1 6 8
M  V30 9 1 8 9
M  V30 10 1 9 10
M  V30 11 1 9 144
M  V30 12 2 10 11
M  V30 13 1 10 12
M  V30 14 1 12 13
M  V30 15 1 13 14
M  V30 16 1 13 141
M  V30 17 2 14 15
M  V30 18 1 14 16
M  V30 19 1 16 17
M  V30 20 1 17 18
M  V30 21 1 17 137
M  V30 22 2 18 19
M  V30 23 1 18 20
M  V30 24 1 20 21
M  V30 25 1 21 22
M  V30 26 1 21 134
M  V30 27 2 22 23
M  V30 28 1 22 24
M  V30 29 1 24 25
M  V30 30 1 25 26
M  V30 31 1 25 130
M  V30 32 2 26 27
M  V30 33 1 26 28
M  V30 34 1 28 29
M  V30 35 1 29 30
M  V30 36 1 29 126
M  V30 37 2 30 31
M  V30 38 1 30 32
M  V30 39 1 32 33
M  V30 40 1 33 34
M  V30 41 1 33 122
M  V30 42 2 34 35
M  V30 43 1 34 36
M  V30 44 1 36 37
M  V30 45 1 37 38
M  V30 46 1 37 121
M  V30 47 2 38 39
M  V30 48 1 38 40
M  V30 49 1 40 41
M  V30 50 1 41 42
M  V30 51 2 42 43
M  V30 52 1 42 44
M  V30 53 1 44 45
M  V30 54 1 45 46
M  V30 55 1 45 118
M  V30 56 2 46 47
M  V30 57 1 46 48
M  V30 58 1 48 49
M  V30 59 1 49 50
M  V30 60 1 49 115
M  V30 61 2 50 51
M  V30 62 1 50 52
M  V30 63 1 52 53
M  V30 64 1 53 54
M  V30 65 1 53 109
M  V30 66 2 54 55
M  V30 67 1 54 56
M  V30 68 1 56 57
M  V30 69 1 57 58
M  V30 70 1 57 102
M  V30 71 2 58 59
M  V30 72 1 58 60
M  V30 73 1 60 61
M  V30 74 1 61 62
M  V30 75 1 61 98
M  V30 76 2 62 63
M  V30 77 1 62 64
M  V30 78 1 64 65
M  V30 79 1 65 66
M  V30 80 2 66 67
M  V30 81 1 66 68
M  V30 82 1 68 69
M  V30 83 1 69 70
M  V30 84 1 69 88
M  V30 85 2 70 71
M  V30 86 1 70 72
M  V30 87 1 72 73
M  V30 88 1 73 74
M  V30 89 1 73 84
M  V30 90 2 74 75
M  V30 91 1 74 76
M  V30 92 1 76 77
M  V30 93 1 77 78
M  V30 94 1 77 81
M  V30 95 2 78 79
M  V30 96 1 78 80
M  V30 97 1 81 82
M  V30 98 1 81 83
M  V30 99 1 84 85
M  V30 100 1 85 86
M  V30 101 1 85 87
M  V30 102 1 88 89
M  V30 103 2 89 90
M  V30 104 1 89 93
M  V30 105 1 90 91
M  V30 106 1 91 92
M  V30 107 2 92 93
M  V30 108 1 92 97
M  V30 109 1 93 94
M  V30 110 2 94 95
M  V30 111 1 95 96
M  V30 112 2 96 97
M  V30 113 1 98 99
M  V30 114 1 99 100
M  V30 115 1 99 101
M  V30 116 1 102 103
M  V30 117 2 103 104
M  V30 118 1 103 108
M  V30 119 1 104 105
M  V30 120 2 105 106
M  V30 121 1 106 107
M  V30 122 2 107 108
M  V30 123 1 109 110
M  V30 124 1 110 111
M  V30 125 2 110 114
M  V30 126 1 111 112
M  V30 127 2 112 113
M  V30 128 1 113 114
M  V30 129 1 115 116
M  V30 130 1 115 117
M  V30 131 1 118 119
M  V30 132 1 118 120
M  V30 133 1 122 123
M  V30 134 1 123 124
M  V30 135 1 123 125
M  V30 136 1 126 127
M  V30 137 1 127 128
M  V30 138 1 127 129
M  V30 139 1 130 131
M  V30 140 2 131 132
M  V30 141 1 131 133
M  V30 142 1 134 135
M  V30 143 1 134 136
M  V30 144 1 137 138
M  V30 145 1 137 140
M  V30 146 1 138 139
M  V30 147 1 141 142
M  V30 148 1 141 143
M  V30 149 1 144 145
M  V30 150 2 145 146
M  V30 151 1 145 147
M  V30 152 1 148 149
M  V30 153 2 149 150
M  V30 154 1 1 151
M  V30 155 1 1 152
M  V30 156 1 1 153
M  V30 157 1 3 154
M  V30 158 1 3 155
M  V30 159 1 4 156
M  V30 160 1 4 157
M  V30 161 1 5 158
M  V30 162 1 8 159
M  V30 163 1 9 160
M  V30 164 1 12 161
M  V30 165 1 13 162
M  V30 166 1 16 163
M  V30 167 1 17 164
M  V30 168 1 20 165
M  V30 169 1 21 166
M  V30 170 1 24 167
M  V30 171 1 25 168
M  V30 172 1 28 169
M  V30 173 1 29 170
M  V30 174 1 32 171
M  V30 175 1 33 172
M  V30 176 1 36 173
M  V30 177 1 37 174
M  V30 178 1 40 175
M  V30 179 1 41 176
M  V30 180 1 41 177
M  V30 181 1 44 178
M  V30 182 1 45 179
M  V30 183 1 48 180
M  V30 184 1 49 181
M  V30 185 1 52 182
M  V30 186 1 53 183
M  V30 187 1 56 184
M  V30 188 1 57 185
M  V30 189 1 60 186
M  V30 190 1 61 187
M  V30 191 1 64 188
M  V30 192 1 65 189
M  V30 193 1 65 190
M  V30 194 1 68 191
M  V30 195 1 69 192
M  V30 196 1 72 193
M  V30 197 1 73 194
M  V30 198 1 76 195
M  V30 199 1 77 196
M  V30 200 1 80 197
M  V30 201 1 81 198
M  V30 202 1 82 199
M  V30 203 1 82 200
M  V30 204 1 82 201
M  V30 205 1 83 202
M  V30 206 1 83 203
M  V30 207 1 83 204
M  V30 208 1 84 205
M  V30 209 1 84 206
M  V30 210 1 85 207
M  V30 211 1 86 208
M  V30 212 1 86 209
M  V30 213 1 86 210
M  V30 214 1 87 211
M  V30 215 1 87 212
M  V30 216 1 87 213
M  V30 217 1 88 214
M  V30 218 1 88 215
M  V30 219 1 90 216
M  V30 220 1 91 217
M  V30 221 1 94 218
M  V30 222 1 95 219
M  V30 223 1 96 220
M  V30 224 1 97 221
M  V30 225 1 98 222
M  V30 226 1 98 223
M  V30 227 1 99 224
M  V30 228 1 100 225
M  V30 229 1 100 226
M  V30 230 1 100 227
M  V30 231 1 101 228
M  V30 232 1 101 229
M  V30 233 1 101 230
M  V30 234 1 102 231
M  V30 235 1 102 232
M  V30 236 1 104 233
M  V30 237 1 105 234
M  V30 238 1 106 235
M  V30 239 1 107 236
M  V30 240 1 108 237
M  V30 241 1 109 238
M  V30 242 1 109 239
M  V30 243 1 111 240
M  V30 244 1 112 241
M  V30 245 1 114 242
M  V30 246 1 115 243
M  V30 247 1 116 244
M  V30 248 1 116 245
M  V30 249 1 116 246
M  V30 250 1 117 247
M  V30 251 1 117 248
M  V30 252 1 117 249
M  V30 253 1 118 250
M  V30 254 1 119 251
M  V30 255 1 119 252
M  V30 256 1 119 253
M  V30 257 1 120 254
M  V30 258 1 120 255
M  V30 259 1 120 256
M  V30 260 1 121 257
M  V30 261 1 121 258
M  V30 262 1 121 259
M  V30 263 1 122 260
M  V30 264 1 122 261
M  V30 265 1 123 262
M  V30 266 1 124 263
M  V30 267 1 124 264
M  V30 268 1 124 265
M  V30 269 1 125 266
M  V30 270 1 125 267
M  V30 271 1 125 268
M  V30 272 1 126 269
M  V30 273 1 126 270
M  V30 274 1 127 271
M  V30 275 1 128 272
M  V30 276 1 128 273
M  V30 277 1 128 274
M  V30 278 1 129 275
M  V30 279 1 129 276
M  V30 280 1 129 277
M  V30 281 1 130 278
M  V30 282 1 130 279
M  V30 283 1 133 280
M  V30 284 1 133 281
M  V30 285 1 134 282
M  V30 286 1 135 283
M  V30 287 1 136 284
M  V30 288 1 136 285
M  V30 289 1 136 286
M  V30 290 1 137 287
M  V30 291 1 138 288
M  V30 292 1 138 289
M  V30 293 1 139 290
M  V30 294 1 139 291
M  V30 295 1 139 292
M  V30 296 1 140 293
M  V30 297 1 140 294
M  V30 298 1 140 295
M  V30 299 1 141 296
M  V30 300 1 142 297
M  V30 301 1 142 298
M  V30 302 1 142 299
M  V30 303 1 143 300
M  V30 304 1 143 301
M  V30 305 1 143 302
M  V30 306 1 144 303
M  V30 307 1 144 304
M  V30 308 1 147 305
M  V30 309 1 147 306
M  V30 310 1 148 307
M  V30 311 1 149 308
M  V30 END BOND
M  V30 END CTAB
M  END
valistatin
